../../../NEMO/OPA_SRC/DIA/diawri_dimg.h90