../../../NEMO/OPA_SRC/OBS/find_obs_proc.h90