../../../NEMO/OPA_SRC/LDF/ldfdyn_antarctic.h90