../../../NEMO/OPA_SRC/LDF/ldfdyn_c1d.h90