../../../NEMO/OPA_SRC/LDF/ldftra_c1d.h90