../../../NEMO/OPA_SRC/LDF/ldftra_c3d.h90