../../../NEMO/OPA_SRC/OBC/obc_par_POMME_R025.h90