../../../NEMO/OPA_SRC/OBC/obc_par_EEL_R5.h90