../../../NEMO/OPA_SRC/OBS/obs_level_search.h90