../../../NEMO/OPA_SRC/OBS/obs_grd_bruteforce.h90