../../../NEMO/OPA_SRC/vectopt_loop_substitute.h90