../../../NEMO/OPA_SRC/LDF/ldfdyn_arctic.h90