../../../NEMO/OPA_SRC/LDF/ldfeiv_substitute.h90