/home/ds4g15/NEMO/dev_v3_4_STABLE_2012/NEMOGCM/NEMO/LIM_SRC_2/limwri_dimg_2.h90