../../../NEMO/OPA_SRC/OBC/obc_vectopt_loop_substitute.h90