../../../NEMO/OPA_SRC/OBS/obsinter_z1d.h90